bes/tests/hca_wmva.m
function mpc = hca_wmva
mpc.version = "'2'";
mpc.baseMVA = 100.00;
mpc.bus = [
      1.000000     3.000000  7182.650000     0.000000     0.000000     0.000000     1.000000     1.000000     0.000000   345.000000     1.000000     1.100000     0.900000;
      2.000000     2.000000  7726.690000     0.000000     0.000000     0.000000     1.000000     1.000000     0.000000   345.000000     1.000000     1.100000     0.900000;
      3.000000     2.000000   162.230000     0.000000     0.000000     0.000000     1.000000     1.000000     0.000000   345.000000     1.000000     1.100000     0.900000;
      4.000000     2.000000  2097.830000     0.000000     0.000000     0.000000     1.000000     1.000000     0.000000   345.000000     1.000000     1.100000     0.900000;
      5.000000     2.000000  3922.540000     0.000000     0.000000     0.000000     1.000000     1.000000     0.000000   345.000000     1.000000     1.100000     0.900000;
      6.000000     2.000000   232.030000     0.000000     0.000000     0.000000     1.000000     1.000000     0.000000   345.000000     1.000000     1.100000     0.900000;
      7.000000     2.000000  2650.160000     0.000000     0.000000     0.000000     1.000000     1.000000     0.000000   345.000000     1.000000     1.100000     0.900000;
      8.000000     1.000000    56.550000     0.000000     0.000000     0.000000     1.000000     1.000000     0.000000   345.000000     1.000000     1.100000     0.900000;
];
mpc.gen = [
      1.000000 10000.000000     0.000000  6567.000000 -6567.000000     1.000000  1000.000000     1.000000 19978.800000     0.000000     0.000000     0.000000     0.000000     0.000000     0.000000     0.000000          inf          inf          inf          inf     0.000000;
      1.000000  3000.000000     0.000000  3834.000000 -3834.000000     1.000000  1000.000000     1.000000 11664.800000  5832.400000     0.000000     0.000000     0.000000     0.000000     0.000000     0.000000          inf          inf          inf          inf     0.000000;
      1.000000  2000.000000     0.000000   798.700000  -798.700000     1.000000  1000.000000     1.000000  2430.000000  2430.000000     0.000000     0.000000     0.000000     0.000000     0.000000     0.000000          inf          inf          inf          inf     0.000000;
      2.000000  6000.000000     0.000000  6824.000000 -6824.000000     1.000000  1000.000000     1.000000 20761.700000     0.000000     0.000000     0.000000     0.000000     0.000000     0.000000     0.000000          inf          inf          inf          inf     0.000000;
      2.000000  2000.000000     0.000000  1048.600000 -1048.600000     1.000000  1000.000000     1.000000  3190.300000  1595.200000     0.000000     0.000000     0.000000     0.000000     0.000000     0.000000          inf          inf          inf          inf     0.000000;
      2.000000  2000.000000     0.000000   890.300000  -890.300000     1.000000  1000.000000     1.000000  2708.600000  2708.600000     0.000000     0.000000     0.000000     0.000000     0.000000     0.000000          inf          inf          inf          inf     0.000000;
      3.000000    40.920000     0.000000    26.300000   -26.300000     1.000000    80.000000     1.000000    80.000000     0.000000     0.000000     0.000000     0.000000     0.000000     0.000000     0.000000          inf          inf          inf          inf     0.000000;
      3.000000   330.000000     0.000000   236.700000  -236.700000     1.000000   720.000000     1.000000   720.000000   360.000000     0.000000     0.000000     0.000000     0.000000     0.000000     0.000000          inf          inf          inf          inf     0.000000;
      4.000000   340.000000     0.000000  1130.100000 -1130.100000     1.000000  1000.000000     1.000000  3438.200000     0.000000     0.000000     0.000000     0.000000     0.000000     0.000000     0.000000          inf          inf          inf          inf     0.000000;
      5.000000  2000.000000     0.000000  3480.700000 -3480.700000     1.000000  1000.000000     1.000000 10589.700000     0.000000     0.000000     0.000000     0.000000     0.000000     0.000000     0.000000          inf          inf          inf          inf     0.000000;
      5.000000  2000.000000     0.000000  1882.700000 -1882.700000     1.000000  1000.000000     1.000000  5728.100000  2864.100000     0.000000     0.000000     0.000000     0.000000     0.000000     0.000000          inf          inf          inf          inf     0.000000;
      7.000000  2000.000000     0.000000  2427.300000 -2427.300000     1.000000  1000.000000     1.000000  7385.000000     0.000000     0.000000     0.000000     0.000000     0.000000     0.000000     0.000000          inf          inf          inf          inf     0.000000;
      7.000000   330.000000     0.000000   204.600000  -204.600000     1.000000   622.400000     1.000000   622.400000   311.200000     0.000000     0.000000     0.000000     0.000000     0.000000     0.000000          inf          inf          inf          inf     0.000000;
      1.000000  1674.800000     0.000000   550.600000  -550.600000     1.000000  1674.800000     0.000000  1674.800000     0.000000     0.000000     0.000000     0.000000     0.000000     0.000000     0.000000          inf          inf          inf          inf     0.000000;
      3.000000  2242.200000     0.000000   737.000000  -737.000000     1.000000  2242.200000     0.000000  2242.200000     0.000000     0.000000     0.000000     0.000000     0.000000     0.000000     0.000000          inf          inf          inf          inf     0.000000;
      4.000000  8730.300000     0.000000  2869.500000 -2869.500000     1.000000  8730.300000     0.000000  8730.300000     0.000000     0.000000     0.000000     0.000000     0.000000     0.000000     0.000000          inf          inf          inf          inf     0.000000;
      6.000000    99.800000     0.000000    32.800000   -32.800000     1.000000    99.800000     0.000000    99.800000     0.000000     0.000000     0.000000     0.000000     0.000000     0.000000     0.000000          inf          inf          inf          inf     0.000000;
      7.000000  3562.200000     0.000000  1170.800000 -1170.800000     1.000000  3562.200000     0.000000  3562.200000     0.000000     0.000000     0.000000     0.000000     0.000000     0.000000     0.000000          inf          inf          inf          inf     0.000000;
];
mpc.branch = [
      5.000000     6.000000     0.004238     0.035898     2.483250  2168.000000  2168.000000  2168.000000     0.000000     0.000000     1.000000  -360.000000   360.000000;
      4.000000     5.000000     0.002481     0.021017    13.084500  6504.000000  6504.000000  6504.000000     0.000000     0.000000     1.000000  -360.000000   360.000000;
      4.000000     6.000000     0.005979     0.050653     3.503880  2168.000000  2168.000000  2168.000000     0.000000     0.000000     1.000000  -360.000000   360.000000;
      1.000000     2.000000     0.006159     0.052173     3.609050  2168.000000  2168.000000  2168.000000     0.000000     0.000000     1.000000  -360.000000   360.000000;
      2.000000     7.000000     0.006215     0.052652     3.642170  2168.000000  2168.000000  2168.000000     0.000000     0.000000     1.000000  -360.000000   360.000000;
      1.000000     5.000000     0.005850     0.049562     3.428470  2168.000000  2168.000000  2168.000000     0.000000     0.000000     1.000000  -360.000000   360.000000;
      4.000000     8.000000     0.006389     0.054125     3.744090  2168.000000  2168.000000  2168.000000     0.000000     0.000000     1.000000  -360.000000   360.000000;
      6.000000     7.000000     0.005947     0.050375     3.484730  2168.000000  2168.000000  2168.000000     0.000000     0.000000     1.000000  -360.000000   360.000000;
      2.000000     5.000000     0.001473     0.012477     7.767830  6504.000000  6504.000000  6504.000000     0.000000     0.000000     1.000000  -360.000000   360.000000;
      1.000000     4.000000     0.007879     0.066747     4.617240  2168.000000  2168.000000  2168.000000     0.000000     0.000000     1.000000  -360.000000   360.000000;
      3.000000     4.000000     0.004392     0.037210     2.573980  2168.000000  2168.000000  2168.000000     0.000000     0.000000     1.000000  -360.000000   360.000000;
      5.000000     7.000000     0.004968     0.042084     2.911200  2168.000000  2168.000000  2168.000000     0.000000     0.000000     1.000000  -360.000000   360.000000;
      1.000000     3.000000     0.004216     0.035717     5.559180  3252.000000  3252.000000  3252.000000     0.000000     0.000000     1.000000  -360.000000   360.000000;
];
mpc.gencost = [
      2.000000    20.000000    10.000000     2.000000    36.000000  2230.000000;
      2.000000    20.000000    10.000000     2.000000    19.300000  2128.000000;
      2.000000    20.000000    10.000000     2.000000     8.200000  1250.000000;
      2.000000    20.000000    10.000000     2.000000    56.500000  2230.000000;
      2.000000    20.000000    10.000000     2.000000    19.100000  2128.000000;
      2.000000    20.000000    10.000000     2.000000     8.000000  1250.000000;
      2.000000    20.000000    10.000000     2.000000    57.040000    10.000000;
      2.000000    20.000000    10.000000     2.000000    19.000000  2128.000000;
      2.000000    20.000000    10.000000     2.000000    57.030000    10.000000;
      2.000000    20.000000    10.000000     2.000000    45.000000  2230.000000;
      2.000000    20.000000    10.000000     2.000000    19.200000  2128.000000;
      2.000000    20.000000    10.000000     2.000000    50.300000  2230.000000;
      2.000000    20.000000    10.000000     2.000000    19.500000  2128.000000;
      2.000000    10.000000    10.000000     2.000000     1.010000    10.000000;
      2.000000    10.000000    10.000000     2.000000     1.010000    10.000000;
      2.000000    10.000000    10.000000     2.000000     1.010000    10.000000;
      2.000000    10.000000    10.000000     2.000000     1.010000    10.000000;
      2.000000    10.000000    10.000000     2.000000     1.010000    10.000000;
];
mpc.gentype = {
  'GT';
  'ST';
  'ST';
  'GT';
  'ST';
  'ST';
  'GT';
  'ST';
  'GT';
  'GT';
  'ST';
  'GT';
  'ST';
  'WT';
  'WT';
  'WT';
  'WT';
  'WT';
};
mpc.genfuel = {
  'ng';
  'coal';
  'nuclear';
  'ng';
  'coal';
  'nuclear';
  'ng';
  'coal';
  'ng';
  'ng';
  'coal';
  'ng';
  'coal';
  'wind';
  'wind';
  'wind';
  'wind';
  'wind';
};
